# generated using pymatgen
data_Cr(MoS2)2
_symmetry_space_group_name_H-M   'P 1'
_cell_length_a   6.57459653
_cell_length_b   6.84890378
_cell_length_c   12.31362376
_cell_angle_alpha   79.63331019
_cell_angle_beta   74.51346018
_cell_angle_gamma   61.31503626
_symmetry_Int_Tables_number   1
_chemical_formula_structural   Cr(MoS2)2
_chemical_formula_sum   'Cr4 Mo8 S16'
_cell_volume   467.87838490
_cell_formula_units_Z   4
loop_
 _symmetry_equiv_pos_site_id
 _symmetry_equiv_pos_as_xyz
  1  'x, y, z'
loop_
 _atom_site_type_symbol
 _atom_site_label
 _atom_site_symmetry_multiplicity
 _atom_site_fract_x
 _atom_site_fract_y
 _atom_site_fract_z
 _atom_site_occupancy
  Cr  Cr0  1  0.28592618  0.22225401  0.95161669  1
  Cr  Cr1  1  0.54016805  0.72251599  0.45153646  1
  Cr  Cr2  1  0.04004652  0.72008754  0.45163412  1
  Cr  Cr3  1  0.78816961  0.22019869  0.95157990  1
  Mo  Mo4  1  0.61439332  0.26985758  0.20809186  1
  Mo  Mo5  1  0.90770079  0.76988884  0.70809332  1
  Mo  Mo6  1  0.67735269  0.65930910  0.19401977  1
  Mo  Mo7  1  0.46930526  0.15932702  0.69406682  1
  Mo  Mo8  1  0.21454392  0.67211287  0.19473919  1
  Mo  Mo9  1  0.91853683  0.17216536  0.69476754  1
  Mo  Mo10  1  0.14988650  0.28346925  0.20896257  1
  Mo  Mo11  1  0.35762253  0.78350873  0.70893864  1
  S  S12  1  0.57046551  0.54988690  0.05505472  1
  S  S13  1  0.82460784  0.04995735  0.55506945  1
  S  S14  1  0.76771595  0.37107540  0.33841062  1
  S  S15  1  0.52276691  0.87097564  0.83840435  1
  S  S16  1  0.78234596  0.87089081  0.30737891  1
  S  S17  1  0.03941834  0.37086307  0.80738305  1
  S  S18  1  0.54472956  0.05915012  0.08944045  1
  S  S19  1  0.30673725  0.55922173  0.58941540  1
  S  S20  1  0.28242763  0.88352713  0.31360390  1
  S  S21  1  0.52029841  0.38358280  0.81363281  1
  S  S22  1  0.04625413  0.07102277  0.09520742  1
  S  S23  1  0.78742208  0.57116040  0.59526707  1
  S  S24  1  0.05955021  0.57222581  0.06477021  1
  S  S25  1  0.30345060  0.07235920  0.56479027  1
  S  S26  1  0.25839934  0.39168819  0.34765494  1
  S  S27  1  0.00215808  0.89171768  0.84766956  1
