# generated using pymatgen
data_CeMo5O8
_symmetry_space_group_name_H-M   'P 1'
_cell_length_a   8.46972023
_cell_length_b   9.39019872
_cell_length_c   10.80961557
_cell_angle_alpha   90.00000000
_cell_angle_beta   110.80832312
_cell_angle_gamma   90.00000000
_symmetry_Int_Tables_number   1
_chemical_formula_structural   CeMo5O8
_chemical_formula_sum   'Ce4 Mo20 O32'
_cell_volume   803.63854684
_cell_formula_units_Z   4
loop_
 _symmetry_equiv_pos_site_id
 _symmetry_equiv_pos_as_xyz
  1  'x, y, z'
loop_
 _atom_site_type_symbol
 _atom_site_label
 _atom_site_symmetry_multiplicity
 _atom_site_fract_x
 _atom_site_fract_y
 _atom_site_fract_z
 _atom_site_occupancy
  Ce  Ce0  1  0.28064913  0.52401835  0.50719714  1
  Ce  Ce1  1  0.71935087  0.02401835  0.99280286  1
  Ce  Ce2  1  0.71935087  0.47598165  0.49280286  1
  Ce  Ce3  1  0.28064913  0.97598165  0.00719714  1
  Mo  Mo4  1  0.60391261  0.85273148  0.48223165  1
  Mo  Mo5  1  0.39608739  0.35273148  0.01776835  1
  Mo  Mo6  1  0.39608739  0.14726852  0.51776835  1
  Mo  Mo7  1  0.60391261  0.64726852  0.98223165  1
  Mo  Mo8  1  0.41327723  0.86880778  0.69506433  1
  Mo  Mo9  1  0.58672277  0.36880778  0.80493567  1
  Mo  Mo10  1  0.58672277  0.13119222  0.30493567  1
  Mo  Mo11  1  0.41327723  0.63119222  0.19506433  1
  Mo  Mo12  1  0.19298017  0.87615254  0.36387045  1
  Mo  Mo13  1  0.80701983  0.37615254  0.13612955  1
  Mo  Mo14  1  0.80701983  0.12384746  0.63612955  1
  Mo  Mo15  1  0.19298017  0.62384746  0.86387045  1
  Mo  Mo16  1  0.79567601  0.85097356  0.27800452  1
  Mo  Mo17  1  0.20432399  0.35097356  0.22199548  1
  Mo  Mo18  1  0.20432399  0.14902644  0.72199548  1
  Mo  Mo19  1  0.79567601  0.64902644  0.77800452  1
  Mo  Mo20  1  0.01167359  0.85328237  0.58826577  1
  Mo  Mo21  1  0.98832641  0.35328237  0.91173423  1
  Mo  Mo22  1  0.98832641  0.14671763  0.41173423  1
  Mo  Mo23  1  0.01167359  0.64671763  0.08826577  1
  O  O24  1  0.40988041  0.00978211  0.85307039  1
  O  O25  1  0.59011959  0.50978211  0.64692961  1
  O  O26  1  0.59011959  0.99021789  0.14692961  1
  O  O27  1  0.40988041  0.49021789  0.35307039  1
  O  O28  1  0.01579648  0.75240692  0.91394840  1
  O  O29  1  0.98420352  0.25240692  0.58605160  1
  O  O30  1  0.98420352  0.24759308  0.08605160  1
  O  O31  1  0.01579648  0.74759308  0.41394840  1
  O  O32  1  0.97299442  0.00092679  0.25391339  1
  O  O33  1  0.02700558  0.50092679  0.24608661  1
  O  O34  1  0.02700558  0.99907321  0.74608661  1
  O  O35  1  0.97299442  0.49907321  0.75391339  1
  O  O36  1  0.39323758  0.74522223  0.01193551  1
  O  O37  1  0.60676242  0.24522223  0.48806449  1
  O  O38  1  0.60676242  0.25477777  0.98806449  1
  O  O39  1  0.39323758  0.75477777  0.51193551  1
  O  O40  1  0.80928351  0.77469260  0.09938704  1
  O  O41  1  0.19071649  0.27469260  0.40061296  1
  O  O42  1  0.19071649  0.22530740  0.90061296  1
  O  O43  1  0.80928351  0.72530740  0.59938704  1
  O  O44  1  0.21712695  0.77364451  0.19793499  1
  O  O45  1  0.78287305  0.27364451  0.30206501  1
  O  O46  1  0.78287305  0.22635549  0.80206501  1
  O  O47  1  0.21712695  0.72635549  0.69793499  1
  O  O48  1  0.63055432  0.78697969  0.83628408  1
  O  O49  1  0.36944568  0.28697969  0.66371592  1
  O  O50  1  0.36944568  0.21302031  0.16371592  1
  O  O51  1  0.63055432  0.71302031  0.33628408  1
  O  O52  1  0.41243661  1.00147162  0.36538238  1
  O  O53  1  0.58756339  0.50147162  0.13461762  1
  O  O54  1  0.58756339  -0.00147162  0.63461762  1
  O  O55  1  0.41243661  0.49852838  0.86538238  1
