# generated using pymatgen
data_Fe(MoS2)2
_symmetry_space_group_name_H-M   'P 1'
_cell_length_a   6.47453672
_cell_length_b   6.75893511
_cell_length_c   12.15091554
_cell_angle_alpha   80.71117137
_cell_angle_beta   74.55274388
_cell_angle_gamma   61.38076428
_symmetry_Int_Tables_number   1
_chemical_formula_structural   Fe(MoS2)2
_chemical_formula_sum   'Fe4 Mo8 S16'
_cell_volume   449.54819975
_cell_formula_units_Z   4
loop_
 _symmetry_equiv_pos_site_id
 _symmetry_equiv_pos_as_xyz
  1  'x, y, z'
loop_
 _atom_site_type_symbol
 _atom_site_label
 _atom_site_symmetry_multiplicity
 _atom_site_fract_x
 _atom_site_fract_y
 _atom_site_fract_z
 _atom_site_occupancy
  Fe  Fe0  1  0.29942409  0.19715393  0.95065068  1
  Fe  Fe1  1  0.55256769  0.69733765  0.45063057  1
  Fe  Fe2  1  0.05388289  0.68352649  0.45101448  1
  Fe  Fe3  1  0.81175291  0.18335184  0.95107388  1
  Mo  Mo4  1  0.66853077  0.24112121  0.20905310  1
  Mo  Mo5  1  0.88117843  0.74110268  0.70904973  1
  Mo  Mo6  1  0.69935448  0.63893159  0.19343027  1
  Mo  Mo7  1  0.46847308  0.13896109  0.69350199  1
  Mo  Mo8  1  0.23028384  0.62933864  0.19164535  1
  Mo  Mo9  1  0.94846189  0.12939497  0.69170614  1
  Mo  Mo10  1  0.13368336  0.24839662  0.21016256  1
  Mo  Mo11  1  0.40783344  0.74843710  0.71017592  1
  S  S12  1  0.59785423  0.51385871  0.05237221  1
  S  S13  1  0.83588889  0.01385594  0.55240924  1
  S  S14  1  0.76748880  0.36638477  0.35041040  1
  S  S15  1  0.51564588  0.86646353  0.85050859  1
  S  S16  1  0.80073106  0.84802345  0.31156980  1
  S  S17  1  0.03969255  0.34795363  0.81164227  1
  S  S18  1  0.56412721  0.03254106  0.09094024  1
  S  S19  1  0.31236199  0.53258817  0.59103614  1
  S  S20  1  0.28783327  0.85328157  0.31582343  1
  S  S21  1  0.54297157  0.35329106  0.81595927  1
  S  S22  1  0.07637155  0.02472080  0.08624972  1
  S  S23  1  0.81261066  0.52474183  0.58629103  1
  S  S24  1  0.08320551  0.52655311  0.05851030  1
  S  S25  1  0.33147435  0.02676853  0.55865677  1
  S  S26  1  0.28260665  0.35088004  0.34284435  1
  S  S27  1  0.02370894  0.85083998  0.84288158  1
